IEEE data/005_bus/ieee/005ieee.dat
 00/00/01                      100.0  0    0 0                                                                                                                                                                                                                                                             
BUS DATA FOLLOWS                    5 ITEMS
   1 bus_1   100   1  1    0.862 -4.778 160.     80.       0.      0.       100.    1.       0.     0.      0.      0.        0                                                                                                                                                                            
   2 bus_2   100   1  1    1.077 17.853 200.     100.      0.      0.       100.    1.       0.     0.      0.      0.        0                                                                                                                                                                            
   3 bus_3   100   1  1    1.036 -4.281 370.     130.      0.      0.       100.    1.       0.     0.      0.      0.        0                                                                                                                                                                            
   4 bus_4   100   1  1  2 1.05  21.843 0.       0.        500.    181.3084 100.    1.05   999900 -99990    0.      0.        0                                                                                                                                                                            
   5 bus_5   100   1  1  3 1.05  0.     0.       0.        257.9427229.9402 100.    1.05   999900 -99990    0.      0.        0                                                                                                                                                                            
-999
BRANCH DATA FOLLOWS                    5 ITEMS
   3    5  1  1   2  0.        0.03        0.     0    0     0      0    0  1.05   0      0      0       0      0      0                                                                                                                                                                                   
   2    4  1  1   2  0.        0.015       0.     0    0     0      0    0  1.05   0      0      0       0      0      0                                                                                                                                                                                   
   1    2  1  1      0.04      0.25        0.5    0    0     0      0    0  0      0      0      0       0      0      0                                                                                                                                                                                   
   1    3  1  1      0.1       0.35        0.     0    0     0      0    0  0      0      0      0       0      0      0                                                                                                                                                                                   
   2    3  1  1      0.08      0.3         0.5    0    0     0      0    0  0      0      0      0       0      0      0                                                                                                                                                                                   
-999
LOSS ZONES FOLLOWS   0 ITEMS
-99
INTERCHANGE DATA FOLLOWS      0 ITEMS
-9
TIE LINES FOLLOWS             0 ITEMS
-999
END OF DATA